D:/NANO/Cioslowski/c060_001.b3lyp631gd
__Jmol-13_12041216433D 1   1.00000     0.00000     0
Jmol version 13.0.9  2012-11-23 13:17 EXTRACT: ({0:359})
 60 90  0  0  0  0              1 V2000
   0.72704  -1.00068   3.32822 C   0  0  0  0  0  0
   1.17637   0.38223   3.32822 C   0  0  0  0  0  0
   1.42461  -1.96080   2.59475 C   0  0  0  0  0  0
   2.30506   0.74896   2.59475 C   0  0  0  0  0  0
   2.30506   1.98587   1.83030 C   0  0  0  0  0  0
   0.00000   1.23691   3.32822 C   0  0  0  0  0  0
   0.00000   2.42369   2.59475 C   0  0  0  0  0  0
   1.17637   2.80591   1.83030 C   0  0  0  0  0  0
  -0.69757  -2.96148   1.83030 C   0  0  0  0  0  0
  -1.42461  -1.96080   2.59475 C   0  0  0  0  0  0
   0.69757  -2.96148   1.83030 C   0  0  0  0  0  0
  -0.72704  -1.00068   3.32822 C   0  0  0  0  0  0
  -1.17637   0.38223   3.32822 C   0  0  0  0  0  0
  -2.60098  -1.57858   1.83030 C   0  0  0  0  0  0
  -3.03210  -0.25172   1.83030 C   0  0  0  0  0  0
  -2.30506   0.74896   2.59475 C   0  0  0  0  0  0
   0.72704  -3.42437  -0.59339 C   0  0  0  0  0  0
  -0.72704  -3.42437  -0.59339 C   0  0  0  0  0  0
   1.42461  -3.19771   0.59339 C   0  0  0  0  0  0
  -1.42461  -3.19771   0.59339 C   0  0  0  0  0  0
  -2.60098  -2.34303   0.59339 C   0  0  0  0  0  0
  -1.17637  -2.80591  -1.83030 C   0  0  0  0  0  0
  -2.30506  -1.98587  -1.83030 C   0  0  0  0  0  0
  -3.03210  -1.74964  -0.59339 C   0  0  0  0  0  0
   3.03210  -1.74964  -0.59339 C   0  0  0  0  0  0
   2.30506  -1.98587  -1.83030 C   0  0  0  0  0  0
   2.60098  -2.34303   0.59339 C   0  0  0  0  0  0
   1.17637  -2.80591  -1.83030 C   0  0  0  0  0  0
   0.00000  -2.42369  -2.59475 C   0  0  0  0  0  0
   2.30506  -0.74896  -2.59475 C   0  0  0  0  0  0
   1.17637  -0.38223  -3.32822 C   0  0  0  0  0  0
   0.00000  -1.23691  -3.32822 C   0  0  0  0  0  0
   3.03210  -0.25172   1.83030 C   0  0  0  0  0  0
   3.48143   0.36673   0.59339 C   0  0  0  0  0  0
   2.60098  -1.57858   1.83030 C   0  0  0  0  0  0
   3.48143  -0.36673  -0.59339 C   0  0  0  0  0  0
   3.03210   0.25172  -1.83030 C   0  0  0  0  0  0
   3.03210   1.74964   0.59339 C   0  0  0  0  0  0
   2.60098   2.34303  -0.59339 C   0  0  0  0  0  0
   2.60098   1.57858  -1.83030 C   0  0  0  0  0  0
  -0.72704   1.00068  -3.32822 C   0  0  0  0  0  0
   0.72704   1.00068  -3.32822 C   0  0  0  0  0  0
   1.42461   1.96080  -2.59475 C   0  0  0  0  0  0
  -1.42461   1.96080  -2.59475 C   0  0  0  0  0  0
  -3.03210   0.25172  -1.83030 C   0  0  0  0  0  0
  -2.30506  -0.74896  -2.59475 C   0  0  0  0  0  0
  -1.17637  -0.38223  -3.32822 C   0  0  0  0  0  0
  -2.60098   1.57858  -1.83030 C   0  0  0  0  0  0
  -3.03210   1.74964   0.59339 C   0  0  0  0  0  0
  -3.48143   0.36673   0.59339 C   0  0  0  0  0  0
  -3.48143  -0.36673  -0.59339 C   0  0  0  0  0  0
  -2.60098   2.34303  -0.59339 C   0  0  0  0  0  0
  -0.72704   3.42437   0.59339 C   0  0  0  0  0  0
  -1.17637   2.80591   1.83030 C   0  0  0  0  0  0
  -2.30506   1.98587   1.83030 C   0  0  0  0  0  0
  -1.42461   3.19771  -0.59339 C   0  0  0  0  0  0
   0.69757   2.96148  -1.83030 C   0  0  0  0  0  0
   1.42461   3.19771  -0.59339 C   0  0  0  0  0  0
   0.72704   3.42437   0.59339 C   0  0  0  0  0  0
  -0.69757   2.96148  -1.83030 C   0  0  0  0  0  0
  1  2  1  0  0  0
  1  3  1  0  0  0
  2  4  1  0  0  0
  3 35  1  0  0  0
  4  5  1  0  0  0
  4 33  1  0  0  0
  5 38  1  0  0  0
  6  7  1  0  0  0
  6  2  1  0  0  0
  7  8  1  0  0  0
  8  5  1  0  0  0
  9 11  1  0  0  0
 10 12  1  0  0  0
 10  9  1  0  0  0
 11 19  1  0  0  0
 11  3  1  0  0  0
 12  1  1  0  0  0
 13 12  1  0  0  0
 13  6  1  0  0  0
 14 21  1  0  0  0
 14 10  1  0  0  0
 15 14  1  0  0  0
 15 16  1  0  0  0
 16 55  1  0  0  0
 16 13  1  0  0  0
 17 28  1  0  0  0
 17 19  1  0  0  0
 18 17  1  0  0  0
 19 27  1  0  0  0
 20 18  1  0  0  0
 20  9  1  0  0  0
 21 20  1  0  0  0
 22 18  1  0  0  0
 22 29  1  0  0  0
 23 46  1  0  0  0
 23 22  1  0  0  0
 24 23  1  0  0  0
 24 21  1  0  0  0
 25 36  1  0  0  0
 26 30  1  0  0  0
 26 25  1  0  0  0
 27 25  1  0  0  0
 27 35  1  0  0  0
 28 26  1  0  0  0
 29 32  1  0  0  0
 29 28  1  0  0  0
 30 37  1  0  0  0
 31 30  1  0  0  0
 32 31  1  0  0  0
 33 34  1  0  0  0
 34 36  1  0  0  0
 35 33  1  0  0  0
 37 36  1  0  0  0
 38 34  1  0  0  0
 39 40  1  0  0  0
 39 38  1  0  0  0
 40 37  1  0  0  0
 41 42  1  0  0  0
 42 31  1  0  0  0
 42 43  1  0  0  0
 43 40  1  0  0  0
 44 41  1  0  0  0
 44 60  1  0  0  0
 45 48  1  0  0  0
 45 46  1  0  0  0
 46 47  1  0  0  0
 47 32  1  0  0  0
 47 41  1  0  0  0
 48 52  1  0  0  0
 48 44  1  0  0  0
 49 52  1  0  0  0
 49 55  1  0  0  0
 50 51  1  0  0  0
 50 15  1  0  0  0
 50 49  1  0  0  0
 51 45  1  0  0  0
 51 24  1  0  0  0
 52 56  1  0  0  0
 53 59  1  0  0  0
 54  7  1  0  0  0
 54 53  1  0  0  0
 55 54  1  0  0  0
 56 60  1  0  0  0
 56 53  1  0  0  0
 57 43  1  0  0  0
 57 58  1  0  0  0
 58 39  1  0  0  0
 59  8  1  0  0  0
 59 58  1  0  0  0
 60 57  1  0  0  0
M  END
$$$$
